%nprocshared=16
%mem=32GB
# opt freq=noraman wb97xd 6-31g(d)

1oh0_crystal_1_conf_1_calc_1

-2 1
 H   0  46.85000000  33.81800000  31.00300000
 C  -1  46.35400000  34.58800000  30.60100000
 H   0  45.95400000  34.28400000  29.63300000
 C   0  45.17100000  34.94700000  31.51400000
 H   0  44.42100000  34.15700000  31.44900000
 H   0  45.51300000  34.98000000  32.54800000
 C   0  44.52300000  36.28000000  31.19800000
 C   0  43.46200000  36.35800000  30.27700000
 H   0  43.09700000  35.46300000  29.79200000
 C   0  42.88100000  37.60800000  29.98600000
 H   0  42.07200000  37.68800000  29.28000000
 C   0  43.35900000  38.77700000  30.61500000
 O   0  42.78900000  39.97300000  30.32800000
 H   0  43.14600000  40.70100000  30.89600000
 C   0  44.42400000  38.69700000  31.53400000
 H   0  44.79300000  39.59600000  32.00700000
 C   0  45.00300000  37.44900000  31.82100000
 H   0  45.82600000  37.39200000  32.51900000
 C   0  47.26800000  35.80000000  30.34600000
 O   0  47.26500000  36.35600000  29.24800000
 N   0  48.11400000  36.15200000  31.32200000
 H   0  48.06300000  35.64900000  32.19800000
 C  -1  49.06000000  37.27300000  31.20500000
 H   0  48.49500000  38.16700000  30.94000000
 C   0  49.75100000  37.51900000  32.56800000
 H   0  50.22800000  36.58500000  32.87300000
 C   0  50.85600000  38.58500000  32.47800000
 H   0  51.24000000  38.80300000  33.47300000
 H   0  50.46700000  39.49800000  32.02900000
 H   0  51.67500000  38.22000000  31.86200000
 C   0  48.74600000  37.90500000  33.68000000
 H   0  48.00600000  37.11400000  33.78600000
 H   0  49.28400000  37.96300000  34.62600000
 C   0  48.00800000  39.23600000  33.47500000
 H   0  47.34100000  39.41500000  34.31900000
 H   0  47.41500000  39.21400000  32.56200000
 H   0  48.72100000  40.05600000  33.42200000
 H   0  49.72000000  37.13900000  30.46500000
 H   0  48.12300000  38.25500000  26.69100000
 C  -1  48.06300000  39.25100000  26.62000000
 H   0  47.33300000  39.51000000  25.85600000
 C   0  47.58400000  39.84700000  27.96100000
 H   0  48.21800000  39.46900000  28.76300000
 C   0  47.63900000  41.37800000  27.99600000
 H   0  48.65000000  41.73500000  27.81100000
 H   0  46.97500000  41.78600000  27.23900000
 H   0  47.33100000  41.73400000  28.97900000
 C   0  46.13300000  39.44100000  28.25300000
 H   0  45.85000000  39.78700000  29.24500000
 H   0  46.02100000  38.35800000  28.23200000
 H   0  45.45900000  39.87700000  27.51500000
 H   0  48.93600000  39.64700000  26.33300000
 H   0  36.27600000  46.27300000  32.60400000
 C  -1  37.16400000  46.71200000  32.46500000
 H   0  37.70200000  46.70800000  33.40800000
 C   0  38.01200000  45.86600000  31.50100000
 H   0  37.47600000  45.75600000  30.55600000
 H   0  38.15200000  44.87200000  31.92900000
 C   0  39.39000000  46.48300000  31.23300000
 O   0  39.86900000  47.28100000  32.06900000
 O   0  39.96500000  46.17500000  30.17000000
 C   0  37.03400000  48.16900000  31.95400000
 O   0  36.44600000  48.38600000  30.88700000
 N   0  37.58300000  49.16600000  32.68100000
 C   0  37.86100000  50.49400000  32.16500000
 H   0  38.80600000  50.46500000  31.62500000
 H   0  37.07500000  50.85000000  31.50200000
 C   0  37.99400000  51.40100000  33.38600000
 H   0  38.69500000  52.21400000  33.20200000
 H   0  37.01800000  51.79500000  33.66400000
 C   0  38.49800000  50.46100000  34.48100000
 H   0  38.15000000  50.77500000  35.46400000
 H   0  39.58400000  50.44000000  34.47200000
 C  -1  37.95000000  49.08200000  34.09800000
 H   0  38.73900000  48.34300000  34.24100000
 H   0  37.16300000  48.84700000  34.66800000
 H   0  39.78100000  42.98900000  23.23700000
 C  -1  40.76300000  42.80200000  23.27200000
 H   0  41.20200000  43.43000000  24.05000000
 C   0  41.04000000  41.33900000  23.64000000
 H   0  40.41500000  40.68500000  23.03000000
 H   0  42.08000000  41.11100000  23.40500000
 C   0  40.84600000  41.03000000  25.11100000
 C   0  39.84600000  40.13100000  25.52500000
 H   0  39.20700000  39.66000000  24.79400000
 C   0  39.68400000  39.84400000  26.89200000
 H   0  38.92800000  39.15700000  27.22700000
 C   0  40.52300000  40.44700000  27.84700000
 O   0  40.38100000  40.12800000  29.15700000
 H   0  41.22300000  40.29000000  29.62200000
 C   0  41.53200000  41.34100000  27.43500000
 H   0  42.17300000  41.81000000  28.16900000
 C   0  41.69000000  41.63200000  26.06800000
 H   0  42.45900000  42.32900000  25.76100000
 H   0  41.23300000  43.04100000  22.42200000
 H   0  40.78700000  46.28600000  20.18300000
 C  -1  40.92800000  47.26700000  20.31300000
 H   0  41.23000000  47.71400000  19.36400000
 C   0  39.63300000  47.95400000  20.77200000
 H   0  39.86700000  48.97500000  21.07900000
 H   0  39.24400000  47.42800000  21.64300000
 C   0  38.54300000  48.02300000  19.69400000
 H   0  38.77600000  48.81700000  18.98500000
 H   0  38.49400000  47.08100000  19.14900000
 C   0  37.18800000  48.29400000  20.33500000
 O   0  36.83200000  49.42300000  20.64800000
 N   0  36.42700000  47.26200000  20.60500000
 H   0  36.75000000  46.33800000  20.35000000
 H   0  35.53600000  47.39800000  21.06500000
 C   0  42.04800000  47.55400000  21.32400000
 O   0  42.93200000  48.35900000  21.03500000
 N   0  42.04700000  46.88100000  22.48000000
 H   0  41.28600000  46.23600000  22.66200000
 C  -1  43.01900000  47.11500000  23.55500000
 H   0  42.74400000  46.51200000  24.42200000
 H   0  42.98900000  48.16500000  23.84600000
 C   0  44.45300000  46.75400000  23.15700000
 O   0  45.34300000  47.60700000  23.16800000
 N   0  44.66800000  45.50100000  22.74700000
 H   0  43.86700000  44.87800000  22.70800000
 C  -1  45.98300000  44.91200000  22.45500000
 H   0  46.72500000  45.39800000  23.08700000
 C   0  45.95800000  43.41000000  22.81700000
 H   0  45.33800000  42.89100000  22.08500000
 H   0  46.97300000  43.01800000  22.73000000
 C   0  45.42500000  43.06600000  24.22200000
 H   0  44.37900000  43.36100000  24.30000000
 C   0  45.51200000  41.55800000  24.45300000
 H   0  45.10400000  41.31700000  25.43500000
 H   0  44.92700000  41.03600000  23.69700000
 H   0  46.55000000  41.22900000  24.40100000
 C   0  46.21900000  43.76500000  25.32200000
 H   0  47.26600000  43.46000000  25.28700000
 H   0  46.14300000  44.84500000  25.20900000
 H   0  45.79000000  43.50600000  26.28900000
 H   0  46.29200000  45.03900000  21.51300000
 H   0  51.55100000  46.35600000  23.79300000
 C  -1  51.26000000  46.16900000  24.73100000
 H   0  51.50000000  47.03600000  25.34200000
 C   0  49.74000000  45.93600000  24.83500000
 H   0  49.47000000  45.04400000  24.27200000
 C   0  49.31800000  45.72500000  26.29400000
 H   0  49.78600000  44.83100000  26.70500000
 H   0  49.59100000  46.59300000  26.89600000
 H   0  48.24100000  45.58400000  26.33800000
 C   0  48.93600000  47.11500000  24.26800000
 H   0  49.18600000  48.03200000  24.79900000
 H   0  49.14400000  47.24200000  23.20600000
 H   0  47.87000000  46.92500000  24.38500000
 H   0  51.76500000  45.38000000  25.08200000
 H   0  52.59100000  42.55000000  29.37400000
 C  -1  52.15200000  42.33400000  30.24600000
 H   0  52.04200000  43.25300000  30.81700000
 C   0  50.73900000  41.81100000  29.96900000
 H   0  50.20500000  41.67200000  30.91000000
 H   0  50.78600000  40.85700000  29.44200000
 H   0  50.19500000  42.53200000  29.36000000
 H   0  52.68400000  41.69900000  30.80500000
 H   0  45.47100000  38.48500000  40.44300000
 C  -1  46.43500000  38.56100000  40.18700000
 H   0  47.02400000  38.05500000  40.94600000
 C   0  46.70500000  37.79900000  38.88400000
 H   0  46.37600000  36.76900000  39.01900000
 H   0  47.78000000  37.78800000  38.71000000
 C   0  46.02000000  38.36400000  37.63500000
 H   0  46.42300000  39.34700000  37.39400000
 H   0  44.95300000  38.46300000  37.83400000
 S   0  46.25000000  37.27400000  36.20900000
 C   0  44.77200000  37.64800000  35.23300000
 H   0  43.88600000  37.60100000  35.86400000
 H   0  44.86100000  38.64100000  34.79100000
 H   0  44.67200000  36.90700000  34.44100000
 H   0  46.75200000  39.50800000  40.13500000
 H   0  49.67000000  42.62600000  38.00000000
 C  -1  50.21300000  42.68500000  37.16200000
 H   0  51.21500000  42.30800000  37.36500000
 C   0  49.59300000  41.77200000  36.08400000
 H   0  50.31300000  41.62800000  35.28400000
 H   0  49.42000000  40.78700000  36.51500000
 C   0  48.30100000  42.24200000  35.45000000
 C   0  48.28500000  42.67300000  34.10800000
 H   0  49.20200000  42.72000000  33.53700000
 C   0  47.06600000  43.00200000  33.48900000
 H   0  47.03200000  43.30400000  32.45100000
 C   0  45.87200000  42.93800000  34.22000000
 H   0  44.93700000  43.21600000  33.75600000
 C   0  45.89400000  42.53500000  35.56400000
 H   0  44.97700000  42.51900000  36.12100000
 C   0  47.10000000  42.17000000  36.17600000
 H   0  47.09900000  41.83700000  37.20200000
 H   0  50.33800000  43.63000000  36.85900000
 H   0  50.81400000  46.32000000  32.34900000
 C  -1  50.84000000  46.41700000  31.35400000
 H   0  51.35500000  45.55600000  30.93900000
 C   0  49.43200000  46.42300000  30.72600000
 H   0  49.54200000  46.49400000  29.64300000
 C   0  48.70800000  45.11300000  31.04100000
 H   0  48.51500000  45.04600000  32.11100000
 H   0  49.31400000  44.26600000  30.72700000
 H   0  47.75400000  45.08100000  30.51600000
 C   0  48.55200000  47.58300000  31.19500000
 H   0  48.42700000  47.55800000  32.27700000
 H   0  47.57000000  47.51100000  30.72900000
 H   0  49.00600000  48.52600000  30.90000000
 H   0  51.37800000  47.22300000  31.10800000
 H   0  52.71000000  50.32300000  27.04700000
 C  -1  52.40100000  50.61800000  26.14300000
 H   0  52.94400000  50.04300000  25.39100000
 C   0  50.89500000  50.28800000  25.98000000
 H   0  50.75800000  49.21000000  26.05100000
 H   0  50.59000000  50.56100000  24.97000000
 C   0  49.92900000  50.95700000  26.97100000
 H   0  50.27400000  51.96000000  27.21200000
 H   0  48.96600000  51.05700000  26.47100000
 S   0  49.63200000  50.01900000  28.49700000
 C   0  50.31100000  51.13200000  29.75200000
 H   0  51.35100000  51.35500000  29.52500000
 H   0  49.73400000  52.05700000  29.77500000
 H   0  50.25300000  50.65100000  30.72700000
 H   0  52.61900000  51.58100000  25.98700000
 H   0  50.60300000  50.77500000  33.65700000
 C  -1  49.75500000  50.76700000  34.18700000
 H   0  49.73700000  51.63800000  34.84000000
 C   0  48.56600000  50.86600000  33.21400000
 H   0  48.67400000  50.07400000  32.47900000
 H   0  48.61500000  51.81900000  32.68600000
 C   0  47.18000000  50.72000000  33.86500000
 H   0  47.15900000  49.82800000  34.48500000
 C   0  46.83400000  51.92500000  34.73600000
 H   0  47.55600000  52.00600000  35.54300000
 H   0  46.84300000  52.83800000  34.14200000
 H   0  45.84800000  51.78400000  35.17400000
 C   0  46.11900000  50.57000000  32.77900000
 H   0  46.34700000  49.70300000  32.15800000
 H   0  46.07800000  51.46500000  32.16100000
 H   0  45.14700000  50.40000000  33.23900000
 H   0  49.73100000  49.94900000  34.76100000
 H   0  47.18800000  46.79200000  37.27000000
 C  -1  46.25300000  46.43800000  37.25300000
 H   0  45.57000000  47.20800000  37.61300000
 C   0  45.82700000  46.09800000  35.80100000
 H   0  46.43600000  45.26400000  35.46000000
 C   0  44.34400000  45.70900000  35.69000000
 H   0  44.07400000  45.57300000  34.64100000
 H   0  44.14800000  44.76600000  36.19300000
 H   0  43.71700000  46.48900000  36.11700000
 C   0  46.06300000  47.25800000  34.82500000
 H   0  45.69800000  46.99100000  33.83100000
 H   0  47.12800000  47.46600000  34.73800000
 H   0  45.54000000  48.15000000  35.16500000
 H   0  46.16300000  45.64700000  37.85800000
 H   0  43.09000000  41.71000000  37.89900000
 C  -1  42.31700000  41.20100000  37.52200000
 H   0  41.51000000  41.89100000  37.27600000
 C   0  42.69800000  40.45600000  36.23800000
 H   0  43.64900000  39.94900000  36.38600000
 H   0  41.94100000  39.70200000  36.02300000
 C   0  42.80400000  41.34600000  35.01000000
 O   0  42.61900000  42.55500000  35.00500000
 O   0  43.14900000  40.65500000  33.90600000
 H   0  43.25300000  41.28400000  33.14500000
 H   0  41.97800000  40.54600000  38.19800000
 H   0  35.65200000  38.57000000  34.73300000
 C  -1  36.50000000  39.05300000  34.95300000
 H   0  36.93500000  38.55600000  35.81500000
 C   0  37.51800000  38.93100000  33.80500000
 H   0  37.55100000  37.88600000  33.50200000
 H   0  37.19800000  39.52900000  32.95400000
 C   0  38.94700000  39.32600000  34.20900000
 H   0  39.13400000  38.96100000  35.21800000
 H   0  39.63400000  38.80900000  33.54200000
 S   0  39.38600000  41.08300000  34.15900000
 C   0  39.95100000  41.25600000  32.44300000
 H   0  39.14800000  40.98900000  31.75800000
 H   0  40.80600000  40.60200000  32.27100000
 H   0  40.25400000  42.28800000  32.25900000
 H   0  36.33000000  40.00400000  35.21300000
 H   0  39.06800000  44.21000000  36.05000000
 C  -1  39.96300000  44.65200000  35.99200000
 H   0  40.73200000  43.97100000  36.36100000
 C   0  40.27600000  44.93300000  34.52000000
 H   0  41.26400000  45.38600000  34.42900000
 H   0  39.53600000  45.61400000  34.10500000
 H   0  40.26900000  44.00500000  33.95000000
 H   0  39.98600000  45.48000000  36.55200000
 H   0  41.87300000  49.37500000  37.96500000
 C  -1  42.51800000  50.11200000  37.76300000
 H   0  43.17600000  50.24700000  38.62400000
 C   0  43.39500000  49.75000000  36.54900000
 H   0  44.20300000  50.48000000  36.49100000
 H   0  43.87500000  48.79000000  36.72500000
 C   0  42.72200000  49.71200000  35.20600000
 C   0  42.07000000  48.65000000  34.68200000
 H   0  41.94800000  47.68800000  35.16100000
 N   0  41.58000000  48.96800000  33.43200000
 H   0  41.03800000  48.31000000  32.85300000
 C   0  41.87700000  50.26500000  33.08500000
 C   0  41.59700000  51.04000000  31.95000000
 H   0  41.05900000  50.60000000  31.12200000
 C   0  42.03300000  52.37500000  31.90600000
 H   0  41.82500000  52.98200000  31.03700000
 C   0  42.75500000  52.90900000  32.98800000
 H   0  43.11000000  53.92900000  32.94300000
 C   0  43.04300000  52.11500000  34.11700000
 H   0  43.63400000  52.52000000  34.92100000
 C   0  42.59800000  50.77600000  34.20500000
 H   0  42.05200000  50.97900000  37.58700000
 H   0  48.76200000  55.03800000  36.03400000
 C  -1  49.23000000  55.22000000  35.16900000
 H   0  49.46100000  54.26900000  34.68700000
 C   0  48.24000000  55.98700000  34.26400000
 H   0  47.90000000  56.86700000  34.81100000
 H   0  47.37200000  55.35200000  34.08600000
 C   0  48.78800000  56.47100000  32.90600000
 H   0  49.63800000  57.13300000  33.06400000
 C   0  49.22000000  55.32300000  31.99500000
 H   0  48.40800000  54.60500000  31.87900000
 H   0  49.50500000  55.71300000  31.01900000
 H   0  50.08500000  54.82300000  32.42700000
 C   0  47.70100000  57.26300000  32.17600000
 H   0  46.84000000  56.62500000  31.97900000
 H   0  47.39200000  58.10900000  32.78900000
 H   0  48.09200000  57.64000000  31.23100000
 H   0  50.08800000  55.71600000  35.30200000
 C   0  43.92700000  42.97300000  31.19800000
 O   0  43.55200000  41.94000000  31.76600000
 C   0  43.49200000  44.20400000  31.65100000
 C   0  43.92300000  45.37800000  31.02200000
 C   0  44.81800000  45.33200000  29.92700000
 C   0  45.25200000  44.06900000  29.46800000
 C   0  44.79300000  42.90500000  30.10600000
 C   0  43.44400000  46.60600000  31.49100000
 C   0  43.85200000  47.80300000  30.89100000
 C   0  44.74100000  47.77500000  29.80400000
 C   0  45.24200000  46.54000000  29.31500000
 C   0  45.24500000  49.06400000  29.17300000
 C   0  45.47000000  48.92100000  27.65300000
 C   0  46.59500000  47.87500000  27.47400000
 C   0  46.19300000  46.50500000  28.09700000
 C   0  44.47200000  50.38800000  29.34000000
 C   0  45.18400000  51.32600000  28.33100000
 C   0  45.79300000  50.38200000  27.29100000
 O   0  46.34200000  50.77600000  26.27000000
 C   0  44.21500000  48.48700000  26.83000000
 H   0  45.94000000  43.97200000  28.63500000
 H   0  45.11300000  41.93100000  29.76500000
 H   0  42.74100000  46.62500000  32.31900000
 H   0  43.47700000  48.74500000  31.28200000
 H   0  46.22600000  49.25700000  29.63300000
 H   0  47.50600000  48.23000000  27.96700000
 H   0  46.83900000  47.75400000  26.41200000
 H   0  45.70900000  45.91700000  27.30900000
 H   0  47.10900000  45.96500000  28.36100000
 H   0  44.51900000  50.77300000  30.36600000
 H   0  42.80400000  44.24300000  32.48600000
 H   0  43.41600000  50.25100000  29.07200000
 H   0  45.99700000  51.88000000  28.81600000
 H   0  44.48500000  52.02400000  27.85800000
 H   0  43.38100000  49.18800000  26.95900000
 H   0  44.46200000  48.44600000  25.76400000
 H   0  43.85100000  47.49700000  27.12200000
 O   0  41.94600000  46.50300000  28.61400000
 H   0  42.54700000  46.77800000  29.33800000
 H   0  41.12300000  46.35100000  29.17500000
 O   0  44.43900000  51.07600000  24.40200000
 H   0  44.55900000  50.25300000  23.90500000
 H   0  45.20600000  51.03300000  25.01800000
 O   0  43.12900000  44.74500000  26.95700000
 H   0  42.58700000  45.43600000  27.42100000
 H   0  43.57700000  44.35400000  27.72700000
 O   0  42.61100000  54.71600000  27.04700000
 H   0  43.56900000  54.74600000  27.18800000
 H   0  42.55800000  54.07500000  26.29800000
 O   0  42.52600000  52.85300000  25.04600000
 H   0  43.21300000  52.14400000  24.90200000
 H   0  42.45700000  53.15800000  24.10300000
 O   0  40.77100000  51.72000000  27.02100000
 H   0  41.43800000  52.04300000  26.39100000
 H   0  40.66500000  52.49700000  27.60400000
 O   0  40.28900000  53.98300000  28.55900000
 H   0  41.18200000  54.36300000  28.46000000
 H   0  40.08300000  54.25200000  29.48400000
 O   0  46.86500000  48.96500000  21.38900000
 H   0  46.37700000  48.48800000  22.09800000
 H   0  46.10800000  49.42100000  20.94900000
 O   0  48.58900000  51.06400000  21.76500000
 H   0  48.07300000  50.25600000  21.53300000
 H   0  48.23200000  51.25700000  22.64400000
 O   0  38.43700000  50.45800000  27.21600000
 H   0  38.55200000  49.83600000  27.95700000
 H   0  39.36700000  50.80200000  27.14300000

